/*--------------------------------*- C++ -*----------------------------------*\
| =========                 |                                                 |
| \\      /  F ield         | OpenFOAM: The Open Source CFD Toolbox           |
|  \\    /   O peration     | Version:  v2206                                 |
|   \\  /    A nd           | Website:  www.openfoam.com                      |
|    \\/     M anipulation  |                                                 |
\*---------------------------------------------------------------------------*/
FoamFile
{
    version     2.0;
    format      ascii;
    class       dictionary;
    object      fvSolution;
}
// * * * * * * * * * * * * * * * * * * * * * * * * * * * * * * * * * * * * * //

solvers
{
    /*
    'p' : The pressure solver is used to solve for the pressure field in
    a flow simulation.The pressure field is an important variable
    in fluid dynamics because it determines the forces that act on
    the fluid and the surrounding solid boundaries.
    */
    p {
        solver          GAMG;
        smoother        GaussSeidel;
        tolerance       1e-7;
        relTol          0.01;
    }

    /*
    'U' : The velocity solver is used to solve for the velocity field in a flow
    simulation. The velocity field represents the speed and direction of
    the fluid at each point in the domain.
    */
    U {
        solver          smoothSolver;
        smoother        GaussSeidel;
        tolerance       1e-8;
        relTol          0.1;
        nSweeps         1;
    }


    /*
    'Phi' : The volume fraction solver is used to solve for the volume fraction of a
    dispersed phase in a two-phase flow. The volume fraction represents the
    fraction of the total volume that is occupied by one of the phases 
    (e.g., liquid, gas).
    */
    // Phi {
    //     $p;
    // }

    /*
    'k' : The turbulence kinetic energy solver is used to solve for the turbulence
    kinetic energy in a turbulent flow simulation. The turbulence kinetic energy
    represents the amount of energy associated with the turbulent motion of the fluid.
    */
    k {
        solver          smoothSolver;
        smoother        GaussSeidel;
        tolerance       1e-8;
        relTol          0.1;
        nSweeps         1;
    }

    /*
    The turbulence dissipation rate solver is used to solve for the turbulence
    dissipation rate in a turbulent flow simulation. The turbulence dissipation
    rate represents the rate at which the energy of the turbulent motion is
    dissipated or converted into heat.
    */
    omega {
        solver          smoothSolver;
        smoother        GaussSeidel;
        tolerance       1e-8;
        relTol          0.1;
        nSweeps         1;
    }
}

SIMPLE
{
    nNonOrthogonalCorrectors 0;
    consistent yes;
}

potentialFlow
{
    nNonOrthogonalCorrectors 10;
}

relaxationFactors
{
    equations
    {
        U               0.9;
        k               0.7;
        omega           0.7;
    }
}

cache
{
    grad(U);
}


// ************************************************************************* //
