/*--------------------------------*- C++ -*----------------------------------*\
| =========                 |                                                 |
| \\      /  F ield         | OpenFOAM: The Open Source CFD Toolbox           |
|  \\    /   O peration     | Version:  v2206                                 |
|   \\  /    A nd           | Website:  www.openfoam.com                      |
|    \\/     M anipulation  |                                                 |
\*---------------------------------------------------------------------------*/
FoamFile
{
    version     2.0;
    format      ascii;
    class       volScalarField;
    object      nut;
}
// * * * * * * * * * * * * * * * * * * * * * * * * * * * * * * * * * * * * * //

dimensions      [0 2 -1 0 0 0 0];

internalField   uniform 0;

boundaryField
{
    #includeEtc "caseDicts/setConstraintTypes"

    inlet {
        type            calculated;
        value           uniform 0;
    }

    outlet {
        type            calculated;
        value           uniform 0;
    }

    ground {
        type            nutkWallFunction;
        value           uniform 0;
    }

    walls {
        type            nutkWallFunction;
        value           uniform 0;
    }

    // "(fsaeHighWheel_Tyre).*"
    // {
    //     type            nutkRoughWallFunction;
    //     Ks uniform 0;
    //     Cs uniform 0.5;
    // }

    "(fsae).*" {
        type            nutkWallFunction;
        value           uniform 0;
    }
}


// ************************************************************************* //
